Recorde/case14_makepf.txt

┍━━━━━━━━━━━━━━━━━━━━━━━━━━━━━━━━━━━━━━━━━━━━━━━━━━━━━━━━━━━━━━━━━━━━━━━━━━━━━━┑
                                正在运行 IEEE 14                                
┕━━━━━━━━━━━━━━━━━━━━━━━━━━━━━━━━━━━━━━━━━━━━━━━━━━━━━━━━━━━━━━━━━━━━━━━━━━━━━━┙

┍━━━━━━━━━━━━━━━━━━━━━━━━━━━━━━━━━━━━━━━━━━━━━━━━━━━━━━━━━━━━━━━━━━━━━━━━━━━━━━┑
                         迭代结果: 经过 2 次迭代后收敛                         
┕━━━━━━━━━━━━━━━━━━━━━━━━━━━━━━━━━━━━━━━━━━━━━━━━━━━━━━━━━━━━━━━━━━━━━━━━━━━━━━┙

╔══════════════════════════════════════════════════════════════════════════════╗
                                    Bus Data                                    
╚══════════════════════════════════════════════════════════════════════════════╝
注： * 表示此节点为平衡节点，x表示此节点为孤立节点
----- ----------------  ------------------  ------------------
 Bus      Voltage          Generation             Load        
  #   Mag(pu) Ang(deg)   P (MW)   Q (MVAr)   P (MW)   Q (MVAr)
----- ------- --------  --------  --------  --------  --------
    1  1.060    0.000*   232.39    -16.91       -         -   
    2  1.045   -4.983     40.00     43.56     21.70     12.70 
    3  1.010  -12.725      0.00     25.08     94.20     19.00 
    4  1.018  -10.313       -         -       47.80     -3.90 
    5  1.020   -8.774       -         -        7.60      1.60 
    6  1.070  -14.221      0.00     12.73     11.20      7.50 
    7  1.062  -13.360       -         -         -         -   
    8  1.090  -13.360      0.00     17.62       -         -   
    9  1.056  -14.939       -         -       29.50     16.60 
   10  1.051  -15.097       -         -        9.00      5.80 
   11  1.057  -14.791       -         -        3.50      1.80 
   12  1.055  -15.076       -         -        6.10      1.60 
   13  1.050  -15.156       -         -       13.50      5.80 
   14  1.036  -16.034       -         -       14.90      5.00 
                        --------  --------  --------  --------
               Total:    272.39     82.08    259.00     73.50
--------------------------------------------------------------

╔══════════════════════════════════════════════════════════════════════════════╗
                                  Branch Data                                  
╚══════════════════════════════════════════════════════════════════════════════╝
-----  -----  -----  --------  --------  --------  --------  --------  --------
Brnch   From   To    From Bus Injection   To Bus Injection     Loss (I^2 * Z)  
  #     Bus    Bus    P (MW)   Q (MVAr)   P (MW)   Q (MVAr)   P (MW)   Q (MVAr)
-----  -----  -----  --------  --------  --------  --------  --------  --------
   1      1      2    156.88    -17.44   -152.59     30.56     4.298     13.12
   2      1      5     75.51      6.62    -72.75    -27.50     2.763    -20.88
   3      2      3     73.24      5.95    -70.91      3.84     2.323      9.79
   4      2      4     56.13      0.31    -54.45    -12.76     1.677    -12.45
   5      2      5     41.52      3.06    -40.61    -32.59     0.904    -29.53
   6      3      4    -23.29      5.13     23.66    -21.71     0.373    -16.59
   7      4      5    -61.16     -1.72     61.67    -46.49     0.514    -48.20
   8      4      7     28.07    -38.61    -28.07     35.63     0.000     -2.98
   9      4      9     16.08    -24.11    -16.08     35.74     0.000     11.63
  10      5      6     44.09    -52.10    -44.09     58.24     0.000      6.14
  11      6     11      7.35     36.71     -7.30     -3.44     0.055     33.26
  12      6     12      7.79     35.65     -7.71     -2.35     0.072     33.30
  13      6     13     17.75     40.36    -17.54     -6.80     0.212     33.56
  14      7      8     -0.00     -5.04      0.00     17.62     0.000     12.58
  15      7      9     28.07     17.90    -28.07     22.62     0.000     40.52
  16      9     10      5.23     31.82     -5.21     -4.18     0.013     27.63
  17      9     14      9.43     31.21     -9.31     -3.36     0.116     27.85
  18     10     11     -3.79     -1.62      3.80      1.64     0.013      0.03
  19     12     13      1.61      0.75     -1.61     -0.75     0.006      0.01
  20     13     14      5.64      1.75     -5.59     -1.64     0.054      0.11
                                                             --------  --------
                                                    Total:    13.393    118.89
时间已过 0.022170 秒。
>> 